[TITLE]
changzhou


[OPTIONS]
FLOW_UNITS           CMS
INFILTRATION         HORTON
FLOW_ROUTING         KINWAVE
START_DATE           06/01/2022
START_TIME           00:00:00
REPORT_START_DATE    06/01/2022
REPORT_START_TIME    00:00:00
END_DATE             06/01/2022
END_TIME             06:00:00
SWEEP_START          01/01
SWEEP_END            12/31
DRY_DAYS             0
REPORT_STEP          0:01:00
WET_STEP             0:01:00
DRY_STEP             0:01:00
ROUTING_STEP         30
ALLOW_PONDING        NO
INERTIAL_DAMPING     PARTIAL
VARIABLE_STEP        0.75
LENGTHENING_STEP     0
MIN_SURFAREA         0
NORMAL_FLOW_LIMITED  BOTH
SKIP_STEADY_STATE    NO
FORCE_MAIN_EQUATION  H-W
LINK_OFFSETS         DEPTH
MIN_SLOPE            0

[EVAPORATION]
;;Type          Parameters
;;------------- ----------
CONSTANT     0.0
DRY_ONLY     NO

[RAINGAGES]
;;               Rain      Time   Snow   Data      
;;Name           Type      Intrvl Catch  Source    
;;-------------- --------- ------ ------ ----------
1                INTENSITY 1:00   1.0    FILE       "D:\Workspace\luthien\module\swmm\temp\rain.txt" STA1       MM   

[SUBCATCHMENTS]
;;                                                 Total    Pcnt.             Pcnt.    Curb     Snow    
;;Name           Raingage         Outlet           Area     Imperv   Width    Slope    Length   Pack    
;;-------------- ---------------- ---------------- -------- -------- -------- -------- -------- --------
S016002          1                016002           1.2626   25       500      0.5      0                        
S014004          1                014004           3.4621   25       500      0.5      0                        
S017003          1                017003           3.7919   25       500      0.5      0                        
S015001          1                015001           3.3114   25       500      0.5      0                        
S013004          1                013004           2.1562   25       500      0.5      0                        
S013006          1                013006           2.3406   25       500      0.5      0                        
S014006          1                014006           3.1045   25       500      0.5      0                        
S013007          1                013007           3.3281   25       500      0.5      0                        
S010004          1                010004           2.3105   25       500      0.5      0                        
S010006          1                010006           2.5172   25       500      0.5      0                        
S013009          1                013009           2.4836   25       500      0.5      0                        
S010008          1                010008           1.963    25       500      0.5      0                        
S018004          1                018004           2.1769   25       500      0.5      0                        
S019001          1                019001           2.1747   25       500      0.5      0                        
S010009          1                010009           3.4465   25       500      0.5      0                        
S003001          1                003001           2.2267   25       500      0.5      0                        
S018005          1                018005           1.7377   25       500      0.5      0                        
S002005          1                002005           3.1017   25       500      0.5      0                        
S012001          1                012001           3.6946   25       500      0.5      0                        
S018006          1                018006           1.9073   25       500      0.5      0                        
S006003          1                006003           3.4811   25       500      0.5      0                        
S002004          1                002004           2.6816   25       500      0.5      0                        
S002006          1                002006           2.3658   25       500      0.5      0                        
S012002          1                012002           4.5477   25       500      0.5      0                        
S002007          1                002007           6.5931   25       500      0.5      0                        
S002003          1                002003           4.0056   25       500      0.5      0                        
S022003          1                022003           4.4856   25       500      0.5      0                        
S012003          1                012003           3.5337   25       500      0.5      0                        
S007006          1                007006           2.9037   25       500      0.5      0                        
S005004          1                005004           2.5911   25       500      0.5      0                        
S005005          1                005005           3.6289   25       500      0.5      0                        
S008004          1                008004           3.5887   25       500      0.5      0                        
S002001          1                002001           3.2855   25       500      0.5      0                        
S001003          1                001003           2.0019   25       500      0.5      0                        
S005003          1                005003           3.7617   25       500      0.5      0                        
S007003          1                007003           2.8772   25       500      0.5      0                        
S016001          1                016001           1.902    25       500      0.5      0                        
S014003          1                014003           4.3855   25       500      0.5      0                        
S017002          1                017002           2.6646   25       500      0.5      0                        
S014001          1                014001           1.8267   25       500      0.5      0                        
S014002          1                014002           1.3049   25       500      0.5      0                        
S014005          1                014005           3.4888   25       500      0.5      0                        
S013003          1                013003           3.4887   25       500      0.5      0                        
S017001          1                017001           1.2396   25       500      0.5      0                        
S017005          1                017005           2.7869   25       500      0.5      0                        
S018001          1                018001           6.3673   25       500      0.5      0                        
S013005          1                013005           1.6189   25       500      0.5      0                        
S013002          1                013002           1.3883   25       500      0.5      0                        
S010002          1                010002           0.6979   25       500      0.5      0                        
S013001          1                013001           1.6336   25       500      0.5      0                        
S017004          1                017004           3.1091   25       500      0.5      0                        
S018003          1                018003           2.5941   25       500      0.5      0                        
S013008          1                013008           4.2548   25       500      0.5      0                        
S018002          1                018002           1.6964   25       500      0.5      0                        
S010003          1                010003           2.2268   25       500      0.5      0                        
S010005          1                010005           1.4567   25       500      0.5      0                        
S010007          1                010007           2.0483   25       500      0.5      0                        
S020001          1                020001           2.578    25       500      0.5      0                        
S017006          1                017006           3.7542   25       500      0.5      0                        
S019002          1                019002           2.5821   25       500      0.5      0                        
S013010          1                013010           2.2146   25       500      0.5      0                        
S011001          1                011001           7.7797   25       500      0.5      0                        
S020003          1                020003           2.1289   25       500      0.5      0                        
S003002          1                003002           1.9169   25       500      0.5      0                        
S021001          1                021001           3.6984   25       500      0.5      0                        
S020002          1                020002           0.9865   25       500      0.5      0                        
S006002          1                006002           4.1243   25       500      0.5      0                        
S008005          1                008005           3.9029   25       500      0.5      0                        
S010001          1                010001           2.4222   25       500      0.5      0                        
S006001          1                006001           4.0395   25       500      0.5      0                        
S022002          1                022002           2.3927   25       500      0.5      0                        
S008006          1                008006           1.5132   25       500      0.5      0                        
S009003          1                009003           1.7783   25       500      0.5      0                        
S009002          1                009002           1.5608   25       500      0.5      0                        
S002002          1                002002           4.8542   25       500      0.5      0                        
S007005          1                007005           1.5279   25       500      0.5      0                        
S007004          1                007004           3.4889   25       500      0.5      0                        
S001004          1                001004           4.42     25       500      0.5      0                        
S009001          1                009001           1.3258   25       500      0.5      0                        
S023003          1                023003           5.6183   25       500      0.5      0                        
S023004          1                023004           1.7826   25       500      0.5      0                        
S022001          1                022001           1.9046   25       500      0.5      0                        
S008003          1                008003           2.9174   25       500      0.5      0                        
S004002          1                004002           3.6439   25       500      0.5      0                        
S001002          1                001002           2.0477   25       500      0.5      0                        
S023002          1                023002           4.6272   25       500      0.5      0                        
S005002          1                005002           2.9318   25       500      0.5      0                        
S007002          1                007002           1.3339   25       500      0.5      0                        
S008002          1                008002           1.0924   25       500      0.5      0                        
S004001          1                004001           2.7029   25       500      0.5      0                        
S005001          1                005001           1.7585   25       500      0.5      0                        
S001001          1                001001           2.432    25       500      0.5      0                        
S007001          1                007001           1.0402   25       500      0.5      0                        
S008001          1                008001           0.8853   25       500      0.5      0                        
S023001          1                023001           0.7791   25       500      0.5      0                        

[SUBAREAS]
;;Subcatchment   N-Imperv   N-Perv     S-Imperv   S-Perv     PctZero    RouteTo    PctRouted 
;;-------------- ---------- ---------- ---------- ---------- ---------- ---------- ----------
S016002          0.01       0.1        0.05       0.05       25         OUTLET    
S014004          0.01       0.1        0.05       0.05       25         OUTLET    
S017003          0.01       0.1        0.05       0.05       25         OUTLET    
S015001          0.01       0.1        0.05       0.05       25         OUTLET    
S013004          0.01       0.1        0.05       0.05       25         OUTLET    
S013006          0.01       0.1        0.05       0.05       25         OUTLET    
S014006          0.01       0.1        0.05       0.05       25         OUTLET    
S013007          0.01       0.1        0.05       0.05       25         OUTLET    
S010004          0.01       0.1        0.05       0.05       25         OUTLET    
S010006          0.01       0.1        0.05       0.05       25         OUTLET    
S013009          0.01       0.1        0.05       0.05       25         OUTLET    
S010008          0.01       0.1        0.05       0.05       25         OUTLET    
S018004          0.01       0.1        0.05       0.05       25         OUTLET    
S019001          0.01       0.1        0.05       0.05       25         OUTLET    
S010009          0.01       0.1        0.05       0.05       25         OUTLET    
S003001          0.01       0.1        0.05       0.05       25         OUTLET    
S018005          0.01       0.1        0.05       0.05       25         OUTLET    
S002005          0.01       0.1        0.05       0.05       25         OUTLET    
S012001          0.01       0.1        0.05       0.05       25         OUTLET    
S018006          0.01       0.1        0.05       0.05       25         OUTLET    
S006003          0.01       0.1        0.05       0.05       25         OUTLET    
S002004          0.01       0.1        0.05       0.05       25         OUTLET    
S002006          0.01       0.1        0.05       0.05       25         OUTLET    
S012002          0.01       0.1        0.05       0.05       25         OUTLET    
S002007          0.01       0.1        0.05       0.05       25         OUTLET    
S002003          0.01       0.1        0.05       0.05       25         OUTLET    
S022003          0.01       0.1        0.05       0.05       25         OUTLET    
S012003          0.01       0.1        0.05       0.05       25         OUTLET    
S007006          0.01       0.1        0.05       0.05       25         OUTLET    
S005004          0.01       0.1        0.05       0.05       25         OUTLET    
S005005          0.01       0.1        0.05       0.05       25         OUTLET    
S008004          0.01       0.1        0.05       0.05       25         OUTLET    
S002001          0.01       0.1        0.05       0.05       25         OUTLET    
S001003          0.01       0.1        0.05       0.05       25         OUTLET    
S005003          0.01       0.1        0.05       0.05       25         OUTLET    
S007003          0.01       0.1        0.05       0.05       25         OUTLET    
S016001          0.01       0.1        0.05       0.05       25         OUTLET    
S014003          0.01       0.1        0.05       0.05       25         OUTLET    
S017002          0.01       0.1        0.05       0.05       25         OUTLET    
S014001          0.01       0.1        0.05       0.05       25         OUTLET    
S014002          0.01       0.1        0.05       0.05       25         OUTLET    
S014005          0.01       0.1        0.05       0.05       25         OUTLET    
S013003          0.01       0.1        0.05       0.05       25         OUTLET    
S017001          0.01       0.1        0.05       0.05       25         OUTLET    
S017005          0.01       0.1        0.05       0.05       25         OUTLET    
S018001          0.01       0.1        0.05       0.05       25         OUTLET    
S013005          0.01       0.1        0.05       0.05       25         OUTLET    
S013002          0.01       0.1        0.05       0.05       25         OUTLET    
S010002          0.01       0.1        0.05       0.05       25         OUTLET    
S013001          0.01       0.1        0.05       0.05       25         OUTLET    
S017004          0.01       0.1        0.05       0.05       25         OUTLET    
S018003          0.01       0.1        0.05       0.05       25         OUTLET    
S013008          0.01       0.1        0.05       0.05       25         OUTLET    
S018002          0.01       0.1        0.05       0.05       25         OUTLET    
S010003          0.01       0.1        0.05       0.05       25         OUTLET    
S010005          0.01       0.1        0.05       0.05       25         OUTLET    
S010007          0.01       0.1        0.05       0.05       25         OUTLET    
S020001          0.01       0.1        0.05       0.05       25         OUTLET    
S017006          0.01       0.1        0.05       0.05       25         OUTLET    
S019002          0.01       0.1        0.05       0.05       25         OUTLET    
S013010          0.01       0.1        0.05       0.05       25         OUTLET    
S011001          0.01       0.1        0.05       0.05       25         OUTLET    
S020003          0.01       0.1        0.05       0.05       25         OUTLET    
S003002          0.01       0.1        0.05       0.05       25         OUTLET    
S021001          0.01       0.1        0.05       0.05       25         OUTLET    
S020002          0.01       0.1        0.05       0.05       25         OUTLET    
S006002          0.01       0.1        0.05       0.05       25         OUTLET    
S008005          0.01       0.1        0.05       0.05       25         OUTLET    
S010001          0.01       0.1        0.05       0.05       25         OUTLET    
S006001          0.01       0.1        0.05       0.05       25         OUTLET    
S022002          0.01       0.1        0.05       0.05       25         OUTLET    
S008006          0.01       0.1        0.05       0.05       25         OUTLET    
S009003          0.01       0.1        0.05       0.05       25         OUTLET    
S009002          0.01       0.1        0.05       0.05       25         OUTLET    
S002002          0.01       0.1        0.05       0.05       25         OUTLET    
S007005          0.01       0.1        0.05       0.05       25         OUTLET    
S007004          0.01       0.1        0.05       0.05       25         OUTLET    
S001004          0.01       0.1        0.05       0.05       25         OUTLET    
S009001          0.01       0.1        0.05       0.05       25         OUTLET    
S023003          0.01       0.1        0.05       0.05       25         OUTLET    
S023004          0.01       0.1        0.05       0.05       25         OUTLET    
S022001          0.01       0.1        0.05       0.05       25         OUTLET    
S008003          0.01       0.1        0.05       0.05       25         OUTLET    
S004002          0.01       0.1        0.05       0.05       25         OUTLET    
S001002          0.01       0.1        0.05       0.05       25         OUTLET    
S023002          0.01       0.1        0.05       0.05       25         OUTLET    
S005002          0.01       0.1        0.05       0.05       25         OUTLET    
S007002          0.01       0.1        0.05       0.05       25         OUTLET    
S008002          0.01       0.1        0.05       0.05       25         OUTLET    
S004001          0.01       0.1        0.05       0.05       25         OUTLET    
S005001          0.01       0.1        0.05       0.05       25         OUTLET    
S001001          0.01       0.1        0.05       0.05       25         OUTLET    
S007001          0.01       0.1        0.05       0.05       25         OUTLET    
S008001          0.01       0.1        0.05       0.05       25         OUTLET    
S023001          0.01       0.1        0.05       0.05       25         OUTLET    

[INFILTRATION]
;;Subcatchment   MaxRate    MinRate    Decay      DryTime    MaxInfil  
;;-------------- ---------- ---------- ---------- ---------- ----------
S016002          3          0.5        4          7          0         
S014004          3          0.5        4          7          0         
S017003          3          0.5        4          7          0         
S015001          3          0.5        4          7          0         
S013004          3          0.5        4          7          0         
S013006          3          0.5        4          7          0         
S014006          3          0.5        4          7          0         
S013007          3          0.5        4          7          0         
S010004          3          0.5        4          7          0         
S010006          3          0.5        4          7          0         
S013009          3          0.5        4          7          0         
S010008          3          0.5        4          7          0         
S018004          3          0.5        4          7          0         
S019001          3          0.5        4          7          0         
S010009          3          0.5        4          7          0         
S003001          3          0.5        4          7          0         
S018005          3          0.5        4          7          0         
S002005          3          0.5        4          7          0         
S012001          3          0.5        4          7          0         
S018006          3          0.5        4          7          0         
S006003          3          0.5        4          7          0         
S002004          3          0.5        4          7          0         
S002006          3          0.5        4          7          0         
S012002          3          0.5        4          7          0         
S002007          3          0.5        4          7          0         
S002003          3          0.5        4          7          0         
S022003          3          0.5        4          7          0         
S012003          3          0.5        4          7          0         
S007006          3          0.5        4          7          0         
S005004          3          0.5        4          7          0         
S005005          3          0.5        4          7          0         
S008004          3          0.5        4          7          0         
S002001          3          0.5        4          7          0         
S001003          3          0.5        4          7          0         
S005003          3          0.5        4          7          0         
S007003          3          0.5        4          7          0         
S016001          3          0.5        4          7          0         
S014003          3          0.5        4          7          0         
S017002          3          0.5        4          7          0         
S014001          3          0.5        4          7          0         
S014002          3          0.5        4          7          0         
S014005          3          0.5        4          7          0         
S013003          3          0.5        4          7          0         
S017001          3          0.5        4          7          0         
S017005          3          0.5        4          7          0         
S018001          3          0.5        4          7          0         
S013005          3          0.5        4          7          0         
S013002          3          0.5        4          7          0         
S010002          3          0.5        4          7          0         
S013001          3          0.5        4          7          0         
S017004          3          0.5        4          7          0         
S018003          3          0.5        4          7          0         
S013008          3          0.5        4          7          0         
S018002          3          0.5        4          7          0         
S010003          3          0.5        4          7          0         
S010005          3          0.5        4          7          0         
S010007          3          0.5        4          7          0         
S020001          3          0.5        4          7          0         
S017006          3          0.5        4          7          0         
S019002          3          0.5        4          7          0         
S013010          3          0.5        4          7          0         
S011001          3          0.5        4          7          0         
S020003          3          0.5        4          7          0         
S003002          3          0.5        4          7          0         
S021001          3          0.5        4          7          0         
S020002          3          0.5        4          7          0         
S006002          3          0.5        4          7          0         
S008005          3          0.5        4          7          0         
S010001          3          0.5        4          7          0         
S006001          3          0.5        4          7          0         
S022002          3          0.5        4          7          0         
S008006          3          0.5        4          7          0         
S009003          3          0.5        4          7          0         
S009002          3          0.5        4          7          0         
S002002          3          0.5        4          7          0         
S007005          3          0.5        4          7          0         
S007004          3          0.5        4          7          0         
S001004          3          0.5        4          7          0         
S009001          3          0.5        4          7          0         
S023003          3          0.5        4          7          0         
S023004          3          0.5        4          7          0         
S022001          3          0.5        4          7          0         
S008003          3          0.5        4          7          0         
S004002          3          0.5        4          7          0         
S001002          3          0.5        4          7          0         
S023002          3          0.5        4          7          0         
S005002          3          0.5        4          7          0         
S007002          3          0.5        4          7          0         
S008002          3          0.5        4          7          0         
S004001          3          0.5        4          7          0         
S005001          3          0.5        4          7          0         
S001001          3          0.5        4          7          0         
S007001          3          0.5        4          7          0         
S008001          3          0.5        4          7          0         
S023001          3          0.5        4          7          0         

[JUNCTIONS]
;;               Invert     Max.       Init.      Surcharge  Ponded    
;;Name           Elev.      Depth      Depth      Depth      Area      
;;-------------- ---------- ---------- ---------- ---------- ----------
018002           7          0          0          0          0         
018004           12.042     0          0          0          0         
018006           14.879     0          0          0          0         
002004           29.239     0          0          0          0         
002003           11.101     0          0          0          0         
002002           13.002     0          0          0          0         
002001           14.202     0          0          0          0         
001003           13.253     0          0          0          0         
001002           7          0          0          0          0         
018003           8.042      0          0          0          0         
017005           15.229     0          0          0          0         
014005           21.619     0          0          0          0         
014003           9.575      0          0          0          0         
014002           8          0          0          0          0         
002006           46.247     0          0          0          0         
002007           52.247     0          0          0          0         
004002           14         0          0          0          0         
023004           12.48      0          0          0          0         
023003           11.188     0          0          0          0         
023002           9          0          0          0          0         
022003           8          0          0          0          0         
022002           6          0          0          0          0         
018005           13.872     0          0          0          0         
020003           12         0          0          0          0         
017004           13.188     0          0          0          0         
017002           8          0          0          0          0         
014006           22.873     0          0          0          0         
013009           24.108     0          0          0          0         
013010           25.231     0          0          0          0         
006003           14.931     0          0          0          0         
006002           13.324     0          0          0          0         
006001           10.324     0          0          0          0         
005003           7          0          0          0          0         
005002           5          0          0          0          0         