<?xml version="1.0" encoding="UTF-8"?>

<!-- generated on 2023-01-06 21:55:38 by Eclipse SUMO duarouter Version 1.15.0
<configuration xmlns:xsi="http://www.w3.org/2001/XMLSchema-instance" xsi:noNamespaceSchemaLocation="http://sumo.dlr.de/xsd/duarouterConfiguration.xsd">

    <input>
        <net-file value="test165.net.xml"/>
        <route-files value="si2.trips.rou.xml"/>
    </input>

    <output>
        <output-file value="si3.rou.xml"/>
    </output>

    <report>
        <ignore-errors value="true"/>
    </report>

</configuration>
-->

<routes xmlns:xsi="http://www.w3.org/2001/XMLSchema-instance" xsi:noNamespaceSchemaLocation="http://sumo.dlr.de/xsd/routes_file.xsd">
    <vType id="random" vClass="passenger" color="blue"/>
    <vehicle id="randUni160:1" type="random" depart="312.00" departPos="32.23" arrivalPos="109.07" arrivalSpeed="0.00">
        <route edges="e19t18 e18t20 e20t82 e82t80 e80t79 e79t78 e78t77 e77t76 e76t59 e59t60"/>
    </vehicle>
    <vehicle id="randUni369:1" type="random" depart="402.00" departPos="40.31" arrivalPos="13.37" arrivalSpeed="0.00">
        <route edges="e18t17 e17t16 e16t14 e14t13 e13t11 e11t09 e09t05 e05t06"/>
    </vehicle>
    <vehicle id="randUni167:1" type="random" depart="566.00" departPos="45.05" arrivalPos="28.93" arrivalSpeed="0.00">
        <route edges="e76t93 e93t92 e92t90 e90t89 e89t87 e87t86 e86t88"/>
    </vehicle>
    <vehicle id="randUni312:1" type="random" depart="1380.00" departPos="5.03" arrivalPos="22.30" arrivalSpeed="0.00">
        <route edges="e87t86 e86t87 e87t79 e79t95 e95t39 e39t83"/>
    </vehicle>
    <vehicle id="randUni439:1" type="random" depart="2322.00" departPos="14.52" arrivalPos="46.88" arrivalSpeed="0.00">
        <route edges="e13t11 e11t33 e33t35 e35t36 e36t37 e37t95 e95t79 e79t78 e78t90 e90t89"/>
    </vehicle>
    <vehicle id="randUni99:1" type="random" depart="2444.00" departPos="71.28" arrivalPos="8.17" arrivalSpeed="0.00">
        <route edges="e25t23 e23t21 e21t20 e20t82 e82t80 e80t84 e84t85"/>
    </vehicle>
    <vehicle id="randUni394:1" type="random" depart="2963.00" departPos="41.47" arrivalPos="251.73" arrivalSpeed="0.00">
        <route edges="e94t59 e59t60 e60t63 e63t89"/>
    </vehicle>
    <vehicle id="randUni173:1" type="random" depart="3271.00" departPos="49.20" arrivalPos="127.99" arrivalSpeed="0.00">
        <route edges="e80t84 e84t85 e85t86 e86t87 e87t79 e79t95 e95t39"/>
    </vehicle>
    <vehicle id="randUni592:1" type="random" depart="4568.00" departPos="48.75" arrivalPos="21.74" arrivalSpeed="0.00">
        <route edges="e54t56 e56t57 e57t59 e59t77 e77t78 e78t79 e79t80 e80t81 e81t19 e19t18 e18t22 e22t25 e25t23 e23t21 e21t18"/>
    </vehicle>
    <vehicle id="randUni407:1" type="random" depart="5199.00" departPos="34.76" arrivalPos="57.23" arrivalSpeed="0.00">
        <route edges="e45t44 e44t43 e43t41 e41t38 e38t40 e40t42"/>
    </vehicle>
    <vehicle id="randUni470:1" type="random" depart="5368.00" departPos="26.44" arrivalPos="246.51" arrivalSpeed="0.00">
        <route edges="e14t18 e18t20 e20t82 e82t80 e80t79 e79t78 e78t77 e77t76 e76t59 e59t60 e60t63 e63t89"/>
    </vehicle>
    <vehicle id="randUni467:1" type="random" depart="5520.00" departPos="61.45" arrivalPos="391.89" arrivalSpeed="0.00">
        <route edges="e63t89 e89t87 e87t79 e79t80 e80t84"/>
    </vehicle>
    <vehicle id="randUni227:1" type="random" depart="5902.00" departPos="46.34" arrivalPos="124.56" arrivalSpeed="0.00">
        <route edges="e77t92 e92t77 e77t76 e76t59 e59t57 e57t55 e55t53 e53t44 e44t54 e54t56 e56t57"/>
    </vehicle>
    <vehicle id="randUni67:1" type="random" depart="6501.00" departPos="117.11" arrivalPos="63.43" arrivalSpeed="0.00">
        <route edges="e73t75 e75t85 e85t86 e86t87 e87t89 e89t63 e63t64"/>
    </vehicle>
    <vehicle id="randUni402:1" type="random" depart="7130.00" departPos="47.25" arrivalPos="186.38" arrivalSpeed="0.00">
        <route edges="e77t92 e92t77 e77t83 e83t57"/>
    </vehicle>
    <vehicle id="randUni453:1" type="random" depart="7852.00" departPos="121.23" arrivalPos="18.91" arrivalSpeed="0.00">
        <route edges="e57t59 e59t77 e77t78 e78t79 e79t80 e80t81 e81t19 e19t18 e18t22 e22t25 e25t26"/>
    </vehicle>
    <vehicle id="randUni504:1" type="random" depart="7896.00" departPos="60.44" arrivalPos="75.95" arrivalSpeed="0.00">
        <route edges="e57t55 e55t53 e53t44 e44t43 e43t41"/>
    </vehicle>
    <vehicle id="randUni100:1" type="random" depart="8038.00" departPos="14.20" arrivalPos="100.93" arrivalSpeed="0.00">
        <route edges="e18t20 e20t82 e82t80 e80t79 e79t78 e78t77 e77t76 e76t59 e59t57"/>
    </vehicle>
    <vehicle id="randUni9:1" type="random" depart="8643.00" departPos="46.68" arrivalPos="168.25" arrivalSpeed="0.00">
        <route edges="e75t85 e85t86 e86t87 e87t79 e79t95"/>
    </vehicle>
    <vehicle id="randUni228:1" type="random" depart="8772.00" departPos="25.80" arrivalPos="55.44" arrivalSpeed="0.00">
        <route edges="e80t81 e81t19 e19t17 e17t16 e16t14 e14t13 e13t11"/>
    </vehicle>
    <vehicle id="randUni526:1" type="random" depart="8822.00" departPos="28.38" arrivalPos="222.23" arrivalSpeed="0.00">
        <route edges="e77t76 e76t59 e59t77 e77t78 e78t79 e79t95 e95t37"/>
    </vehicle>
    <vehicle id="randUni565:1" type="random" depart="9000.00" departPos="4.70" arrivalPos="63.52" arrivalSpeed="0.00">
        <route edges="e31t28 e28t27 e27t25 e25t23 e23t21 e21t18 e18t17 e17t16 e16t14 e14t96 e96t95 e95t96"/>
    </vehicle>
    <vehicle id="randUni612:1" type="random" depart="9022.00" departPos="91.09" arrivalPos="144.54" arrivalSpeed="0.00">
        <route edges="e86t85 e85t86 e86t73 e73t71 e71t65 e65t61"/>
    </vehicle>
    <vehicle id="randUni48:1" type="random" depart="9147.00" departPos="16.32" arrivalPos="144.74" arrivalSpeed="0.00">
        <route edges="e89t63 e63t64 e64t65 e65t61 e61t59 e59t57 e57t55 e55t53 e53t44 e44t43 e43t41 e41t38 e38t37 e37t36 e36t37"/>
    </vehicle>
    <vehicle id="randUni73:1" type="random" depart="9556.00" departPos="332.51" arrivalPos="131.69" arrivalSpeed="0.00">
        <route edges="e70t73 e73t86 e86t88 e88t91 e91t64"/>
    </vehicle>
    <vehicle id="randUni422:1" type="random" depart="10662.00" departPos="11.20" arrivalPos="1.25" arrivalSpeed="0.00">
        <route edges="e49t44 e44t43 e43t41 e41t38 e38t37 e37t36 e36t34 e34t32 e32t09"/>
    </vehicle>
    <vehicle id="randUni128:1" type="random" depart="11445.00" departPos="151.83" arrivalPos="42.17" arrivalSpeed="0.00">
        <route edges="e41t38 e38t37 e37t36 e36t34 e34t32 e32t09 e09t10 e10t12 e12t14 e14t18 e18t22 e22t25 e25t23 e23t21 e21t20"/>
    </vehicle>
    <vehicle id="randUni550:1" type="random" depart="11454.00" departPos="155.26" arrivalPos="43.91" arrivalSpeed="0.00">
        <route edges="e91t88 e88t86 e86t73 e73t75 e75t28 e28t27 e27t25 e25t23 e23t21 e21t18"/>
    </vehicle>
    <vehicle id="randUni477:1" type="random" depart="11778.00" departPos="61.89" arrivalPos="83.62" arrivalSpeed="0.00">
        <route edges="e80t79 e79t78 e78t77 e77t76 e76t59 e59t77"/>
    </vehicle>
    <vehicle id="randUni628:1" type="random" depart="11978.00" departPos="88.01" arrivalPos="79.15" arrivalSpeed="0.00">
        <route edges="e86t73 e73t86 e86t87 e87t89 e89t90"/>
    </vehicle>
    <vehicle id="randUni268:1" type="random" depart="12571.00" departPos="251.54" arrivalPos="57.68" arrivalSpeed="0.00">
        <route edges="e27t84 e84t27 e27t25 e25t23 e23t21 e21t18 e18t17 e17t16 e16t14 e14t13 e13t11 e11t33 e33t35 e35t36 e36t34"/>
    </vehicle>
    <vehicle id="randUni629:1" type="random" depart="12646.00" departPos="17.88" arrivalPos="189.12" arrivalSpeed="0.00">
        <route edges="e74t73 e73t86 e86t87 e87t79 e79t95 e95t37 e37t95"/>
    </vehicle>
    <vehicle id="randUni446:1" type="random" depart="12784.00" departPos="74.80" arrivalPos="15.57" arrivalSpeed="0.00">
        <route edges="e59t77 e77t76 e76t59 e59t57 e57t55 e55t53 e53t44 e44t54"/>
    </vehicle>
    <vehicle id="randUni377:1" type="random" depart="12848.00" departPos="5.69" arrivalPos="84.34" arrivalSpeed="0.00">
        <route edges="e92t90 e90t78 e78t77 e77t76 e76t93 e93t92"/>
    </vehicle>
    <vehicle id="randUni521:1" type="random" depart="13075.00" departPos="72.31" arrivalPos="3.31" arrivalSpeed="0.00">
        <route edges="e83t77 e77t78 e78t90 e90t92"/>
    </vehicle>
    <vehicle id="randUni184:1" type="random" depart="13162.00" departPos="19.08" arrivalPos="60.75" arrivalSpeed="0.00">
        <route edges="e27t25 e25t28 e28t73 e73t71 e71t65 e65t70 e70t73"/>
    </vehicle>
    <vehicle id="randUni285:1" type="random" depart="13540.00" departPos="40.75" arrivalPos="8.25" arrivalSpeed="0.00">
        <route edges="e56t57 e57t55"/>
    </vehicle>
    <vehicle id="randUni337:1" type="random" depart="14043.00" departPos="30.20" arrivalPos="180.34" arrivalSpeed="0.00">
        <route edges="e21t18 e18t17 e17t16 e16t14 e14t96 e96t95"/>
    </vehicle>
    <vehicle id="randUni223:1" type="random" depart="14179.00" departPos="68.08" arrivalPos="69.00" arrivalSpeed="0.00">
        <route edges="e75t28 e28t27 e27t25 e25t23 e23t21 e21t18 e18t17 e17t16 e16t14"/>
    </vehicle>
    <vehicle id="randUni445:1" type="random" depart="14976.00" departPos="57.17" arrivalPos="73.78" arrivalSpeed="0.00">
        <route edges="e13t11 e11t33 e33t35 e35t36 e36t37 e37t38 e38t40 e40t42 e42t54 e54t56 e56t57 e57t59 e59t60"/>
    </vehicle>
    <vehicle id="randUni2:1" type="random" depart="15281.00" departPos="9.37" arrivalPos="48.50" arrivalSpeed="0.00">
        <route edges="e11t33 e33t35 e35t36 e36t37 e37t38 e38t40 e40t42 e42t44 e44t43 e43t41 e41t38"/>
    </vehicle>
    <vehicle id="randUni163:1" type="random" depart="15303.00" departPos="35.83" arrivalPos="66.01" arrivalSpeed="0.00">
        <route edges="e64t65 e65t61 e61t59 e59t77 e77t92 e92t93"/>
    </vehicle>
    <vehicle id="randUni553:1" type="random" depart="15759.00" departPos="23.30" arrivalPos="47.54" arrivalSpeed="0.00">
        <route edges="e75t28 e28t27 e27t25 e25t23 e23t21 e21t20 e20t82 e82t80 e80t81 e81t19 e19t17"/>
    </vehicle>
    <vehicle id="randUni450:1" type="random" depart="16102.00" departPos="1.22" arrivalPos="114.93" arrivalSpeed="0.00">
        <route edges="e68t65 e65t61 e61t59 e59t57 e57t55 e55t53 e53t44 e44t43 e43t41 e41t38 e38t40"/>
    </vehicle>
    <vehicle id="randUni339:1" type="random" depart="16144.00" departPos="14.96" arrivalPos="3.38" arrivalSpeed="0.00">
        <route edges="e42t44 e44t54 e54t56 e56t57 e57t59 e59t60 e60t63 e63t64 e64t65 e65t70 e70t73 e73t75 e75t85 e85t84"/>
    </vehicle>
    <vehicle id="randUni316:1" type="random" depart="16930.00" departPos="158.40" arrivalPos="56.21" arrivalSpeed="0.00">
        <route edges="e87t79 e79t95 e95t37 e37t38 e38t40 e40t42 e42t54"/>
    </vehicle>
    <vehicle id="randUni345:1" type="random" depart="16944.00" departPos="18.20" arrivalPos="15.65" arrivalSpeed="0.00">
        <route edges="e94t59 e59t57 e57t55 e55t53 e53t44 e44t43 e43t41 e41t38 e38t37 e37t36 e36t34 e34t32 e32t09 e09t05 e05t06"/>
    </vehicle>
    <vehicle id="randUni371:1" type="random" depart="17295.00" departPos="12.17" arrivalPos="27.70" arrivalSpeed="0.00">
        <route edges="e50t49 e49t44 e44t54 e54t56 e56t57 e57t58"/>
    </vehicle>
    <vehicle id="randUni273:1" type="random" depart="17556.00" departPos="85.16" arrivalPos="80.13" arrivalSpeed="0.00">
        <route edges="e37t38 e38t37 e37t95 e95t79 e79t87 e87t89 e89t90"/>
    </vehicle>
    <vehicle id="randUni179:1" type="random" depart="17630.00" departPos="305.18" arrivalPos="198.87" arrivalSpeed="0.00">
        <route edges="e70t73 e73t71 e71t65 e65t61 e61t59 e59t57 e57t83"/>
    </vehicle>
    <vehicle id="randUni344:1" type="random" depart="18849.00" departPos="220.56" arrivalPos="50.50" arrivalSpeed="0.00">
        <route edges="e61t59 e59t77 e77t78 e78t79 e79t80 e80t81 e81t19 e19t18 e18t17"/>
    </vehicle>
    <vehicle id="randUni311:1" type="random" depart="19492.00" departPos="148.39" arrivalPos="46.14" arrivalSpeed="0.00">
        <route edges="e84t27 e27t84 e84t85 e85t86 e86t88 e88t91 e91t64"/>
    </vehicle>
    <vehicle id="randUni188:1" type="random" depart="19546.00" departPos="215.73" arrivalPos="12.65" arrivalSpeed="0.00">
        <route edges="e79t87 e87t79 e79t78 e78t77 e77t76 e76t59 e59t57 e57t55 e55t53 e53t44 e44t52 e52t51"/>
    </vehicle>
    <vehicle id="randUni68:1" type="random" depart="20459.00" departPos="100.11" arrivalPos="22.05" arrivalSpeed="0.00">
        <route edges="e64t91 e91t70 e70t73 e73t75 e75t28 e28t29"/>
    </vehicle>
    <vehicle id="randUni391:1" type="random" depart="20556.00" departPos="59.47" arrivalPos="217.48" arrivalSpeed="0.00">
        <route edges="e39t83 e83t39 e39t95 e95t79 e79t87 e87t86 e86t85 e85t84 e84t27"/>
    </vehicle>
    <vehicle id="randUni218:1" type="random" depart="20795.00" departPos="17.77" arrivalPos="108.98" arrivalSpeed="0.00">
        <route edges="e66t65 e65t61 e61t59 e59t57 e57t83 e83t57"/>
    </vehicle>
    <vehicle id="randUni288:1" type="random" depart="20976.00" departPos="4.36" arrivalPos="19.83" arrivalSpeed="0.00">
        <route edges="e09t33 e33t35 e35t36 e36t37 e37t38 e38t40 e40t42 e42t54 e54t56 e56t57 e57t59 e59t60 e60t63 e63t64 e64t65 e65t61 e61t62"/>
    </vehicle>
    <vehicle id="randUni69:1" type="random" depart="21195.00" departPos="87.89" arrivalPos="197.69" arrivalSpeed="0.00">
        <route edges="e90t92 e92t93 e93t60 e60t63 e63t64 e64t65 e65t70 e70t73"/>
    </vehicle>
    <vehicle id="randUni61:1" type="random" depart="21453.00" departPos="148.80" arrivalPos="152.33" arrivalSpeed="0.00">
        <route edges="e79t80 e80t84 e84t85 e85t86"/>
    </vehicle>
    <vehicle id="randUni42:1" type="random" depart="21838.00" departPos="25.85" arrivalPos="99.25" arrivalSpeed="0.00">
        <route edges="e22t25 e25t28 e28t73 e73t86 e86t87 e87t89 e89t90"/>
    </vehicle>
    <vehicle id="randUni240:1" type="random" depart="21865.00" departPos="7.86" arrivalPos="10.05" arrivalSpeed="0.00">
        <route edges="e26t25 e25t23 e23t21 e21t18 e18t22"/>
    </vehicle>
    <vehicle id="randUni189:1" type="random" depart="22227.00" departPos="8.40" arrivalPos="226.13" arrivalSpeed="0.00">
        <route edges="e49t44 e44t43 e43t41 e41t38"/>
    </vehicle>
    <vehicle id="randUni43:1" type="random" depart="22263.00" departPos="72.14" arrivalPos="16.09" arrivalSpeed="0.00">
        <route edges="e54t56 e56t57 e57t55 e55t53 e53t44 e44t43 e43t41 e41t38 e38t37 e37t36 e36t34 e34t32 e32t09 e09t05"/>
    </vehicle>
    <vehicle id="randUni462:1" type="random" depart="22548.00" departPos="14.81" arrivalPos="40.99" arrivalSpeed="0.00">
        <route edges="e80t79 e79t80 e80t81 e81t19 e19t17 e17t16 e16t14"/>
    </vehicle>
    <vehicle id="randUni201:1" type="random" depart="22637.00" departPos="113.74" arrivalPos="40.89" arrivalSpeed="0.00">
        <route edges="e59t77 e77t78 e78t90"/>
    </vehicle>
    <vehicle id="randUni393:1" type="random" depart="22713.00" departPos="24.10" arrivalPos="17.70" arrivalSpeed="0.00">
        <route edges="e32t09 e09t33 e33t35 e35t36 e36t37 e37t95 e95t39"/>
    </vehicle>
    <vehicle id="randUni547:1" type="random" depart="22860.00" departPos="174.90" arrivalPos="97.66" arrivalSpeed="0.00">
        <route edges="e36t37 e37t38 e38t40 e40t42 e42t54 e54t56 e56t57"/>
    </vehicle>
    <vehicle id="randUni135:1" type="random" depart="23075.00" departPos="94.10" arrivalPos="90.36" arrivalSpeed="0.00">
        <route edges="e86t85 e85t86 e86t87"/>
    </vehicle>
    <vehicle id="randUni33:1" type="random" depart="23167.00" departPos="196.51" arrivalPos="20.05" arrivalSpeed="0.00">
        <route edges="e83t57 e57t55 e55t53 e53t44 e44t43 e43t41 e41t38 e38t37 e37t36 e36t34 e34t32 e32t09 e09t33"/>
    </vehicle>
    <vehicle id="randUni199:1" type="random" depart="23188.00" departPos="15.85" arrivalPos="78.24" arrivalSpeed="0.00">
        <route edges="e66t65 e65t70 e70t91 e91t88 e88t89"/>
    </vehicle>
    <vehicle id="randUni491:1" type="random" depart="23241.00" departPos="11.94" arrivalPos="208.10" arrivalSpeed="0.00">
        <route edges="e77t76 e76t59 e59t57 e57t55 e55t53 e53t44 e44t43 e43t41 e41t38 e38t40"/>
    </vehicle>
    <vehicle id="randUni229:1" type="random" depart="23248.00" departPos="71.40" arrivalPos="17.52" arrivalSpeed="0.00">
        <route edges="e78t90 e90t78 e78t79 e79t80 e80t81 e81t19 e19t18 e18t22 e22t25 e25t23"/>
    </vehicle>
    <vehicle id="randUni107:1" type="random" depart="23290.00" departPos="24.95" arrivalPos="3.04" arrivalSpeed="0.00">
        <route edges="e82t80 e80t79 e79t78 e78t77 e77t76 e76t59 e59t57 e57t55 e55t53 e53t44"/>
    </vehicle>
    <vehicle id="randUni64:1" type="random" depart="23419.00" departPos="110.04" arrivalPos="26.99" arrivalSpeed="0.00">
        <route edges="e36t37 e37t38 e38t40 e40t42"/>
    </vehicle>
    <vehicle id="randUni203:1" type="random" depart="23955.00" departPos="15.94" arrivalPos="90.85" arrivalSpeed="0.00">
        <route edges="e70t91 e91t70 e70t73 e73t75 e75t28 e28t27 e27t25 e25t23 e23t21 e21t18 e18t17 e17t16 e16t14"/>
    </vehicle>
    <vehicle id="randUni123:1" type="random" depart="24242.00" departPos="15.51" arrivalPos="130.71" arrivalSpeed="0.00">
        <route edges="e86t85 e85t86 e86t87 e87t79 e79t95 e95t37 e37t38 e38t37"/>
    </vehicle>
    <vehicle id="randUni364:1" type="random" depart="24268.00" departPos="246.75" arrivalPos="117.14" arrivalSpeed="0.00">
        <route edges="e78t39 e39t95 e95t79 e79t87 e87t86 e86t85 e85t84 e84t27"/>
    </vehicle>
    <vehicle id="randUni362:1" type="random" depart="24277.00" departPos="3.95" arrivalPos="7.84" arrivalSpeed="0.00">
        <route edges="e07t08 e08t10 e10t12 e12t14 e14t13 e13t11 e11t09"/>
    </vehicle>
    <vehicle id="randUni432:1" type="random" depart="24483.00" departPos="111.72" arrivalPos="0.23" arrivalSpeed="0.00">
        <route edges="e92t90 e90t89 e89t87 e87t86 e86t85 e85t84"/>
    </vehicle>
    <vehicle id="randUni398:1" type="random" depart="24537.00" departPos="11.97" arrivalPos="0.03" arrivalSpeed="0.00">
        <route edges="e09t33 e33t35 e35t36 e36t34 e34t32 e32t09 e09t10 e10t12 e12t14 e14t18 e18t20 e20t82"/>
    </vehicle>
    <vehicle id="randUni342:1" type="random" depart="24671.00" departPos="29.64" arrivalPos="3.50" arrivalSpeed="0.00">
        <route edges="e82t80 e80t81 e81t19 e19t18 e18t22 e22t25"/>
    </vehicle>
    <vehicle id="randUni71:1" type="random" depart="25047.00" departPos="79.77" arrivalPos="21.15" arrivalSpeed="0.00">
        <route edges="e14t13 e13t11 e11t33 e33t35 e35t36 e36t37 e37t95 e95t39 e39t83"/>
    </vehicle>
    <vehicle id="randUni82:1" type="random" depart="25160.00" departPos="48.36" arrivalPos="5.89" arrivalSpeed="0.00">
        <route edges="e80t81 e81t19 e19t17 e17t16 e16t14 e14t13 e13t11 e11t33 e33t35 e35t36 e36t37 e37t38 e38t40 e40t42 e42t54 e54t56"/>
    </vehicle>
    <vehicle id="randUni158:1" type="random" depart="25534.00" departPos="16.36" arrivalPos="70.77" arrivalSpeed="0.00">
        <route edges="e62t61 e61t59 e59t77 e77t78 e78t79 e79t80 e80t81 e81t19 e19t17"/>
    </vehicle>
    <vehicle id="randUni464:1" type="random" depart="25547.00" departPos="11.53" arrivalPos="121.76" arrivalSpeed="0.00">
        <route edges="e78t39 e39t95 e95t79 e79t87 e87t86 e86t73 e73t75 e75t28"/>
    </vehicle>
    <vehicle id="randUni231:1" type="random" depart="25620.00" departPos="18.32" arrivalPos="36.89" arrivalSpeed="0.00">
        <route edges="e79t78 e78t79 e79t95 e95t37 e37t36"/>
    </vehicle>
    <vehicle id="randUni41:1" type="random" depart="26081.00" departPos="16.72" arrivalPos="128.79" arrivalSpeed="0.00">
        <route edges="e32t09 e09t33 e33t35 e35t36 e36t37 e37t38 e38t40 e40t42 e42t54 e54t56 e56t57 e57t59 e59t77"/>
    </vehicle>
    <vehicle id="randUni401:1" type="random" depart="26193.00" departPos="77.71" arrivalPos="77.89" arrivalSpeed="0.00">
        <route edges="e45t43 e43t41 e41t38 e38t37 e37t36 e36t34 e34t32 e32t09 e09t10 e10t12 e12t14 e14t18 e18t22 e22t25 e25t28 e28t27 e27t84"/>
    </vehicle>
    <vehicle id="randUni274:1" type="random" depart="26599.00" departPos="3.69" arrivalPos="23.51" arrivalSpeed="0.00">
        <route edges="e24t22 e22t25 e25t23 e23t21"/>
    </vehicle>
    <vehicle id="randUni480:1" type="random" depart="26691.00" departPos="222.44" arrivalPos="212.76" arrivalSpeed="0.00">
        <route edges="e27t84 e84t80 e80t79 e79t78 e78t39"/>
    </vehicle>
    <vehicle id="randUni271:1" type="random" depart="26913.00" departPos="6.52" arrivalPos="107.68" arrivalSpeed="0.00">
        <route edges="e85t84 e84t85 e85t86 e86t73 e73t71 e71t65 e65t70 e70t91"/>
    </vehicle>
    <vehicle id="randUni510:1" type="random" depart="27196.00" departPos="60.80" arrivalPos="119.88" arrivalSpeed="0.00">
        <route edges="e77t76 e76t59 e59t77 e77t78 e78t79 e79t95 e95t96 e96t14"/>
    </vehicle>
    <vehicle id="randUni5:1" type="random" depart="27416.00" departPos="205.29" arrivalPos="128.35" arrivalSpeed="0.00">
        <route edges="e41t38 e38t39 e39t38"/>
    </vehicle>
    <vehicle id="randUni516:1" type="random" depart="27478.00" departPos="109.76" arrivalPos="133.82" arrivalSpeed="0.00">
        <route edges="e83t39 e39t83 e83t57 e57t59 e59t60 e60t63 e63t64 e64t65"/>
    </vehicle>
    <vehicle id="randUni602:1" type="random" depart="27532.00" departPos="125.26" arrivalPos="114.93" arrivalSpeed="0.00">
        <route edges="e89t87 e87t79 e79t78 e78t77 e77t92"/>
    </vehicle>
    <vehicle id="randUni260:1" type="random" depart="27804.00" departPos="13.65" arrivalPos="13.84" arrivalSpeed="0.00">
        <route edges="e66t65 e65t61 e61t59 e59t60"/>
    </vehicle>
    <vehicle id="randUni473:1" type="random" depart="27996.00" departPos="49.02" arrivalPos="20.65" arrivalSpeed="0.00">
        <route edges="e53t44 e44t43 e43t41 e41t38 e38t37 e37t36 e36t34 e34t32 e32t09 e09t10 e10t12 e12t14 e14t13 e13t11 e11t33"/>
    </vehicle>
    <vehicle id="randUni215:1" type="random" depart="28037.00" departPos="182.11" arrivalPos="15.89" arrivalSpeed="0.00">
        <route edges="e88t91 e91t64 e64t65 e65t61 e61t59 e59t57 e57t55 e55t53 e53t44 e44t47 e47t48"/>
    </vehicle>
    <vType id="default" vClass="passenger" color="red"/>
    <vehicle id="h54c1:1" type="default" depart="28971.00" departPos="113.42" arrivalPos="250.69" arrivalSpeed="0.00">
        <route edges="e96t36 e36t37 e37t38 e38t39 e39t78"/>
    </vehicle>
    <vehicle id="randUni186:1" type="random" depart="29599.00" departPos="21.45" arrivalPos="201.64" arrivalSpeed="0.00">
        <route edges="e72t71 e71t65 e65t70 e70t73 e73t86 e86t87 e87t79 e79t95 e95t37"/>
    </vehicle>
    <vehicle id="h230c1:1" type="default" depart="29822.00" departPos="19.54" arrivalPos="142.23" arrivalSpeed="0.00">
        <route edges="e25t23 e23t21 e21t20 e20t82 e82t80 e80t79 e79t78 e78t77 e77t92 e92t77"/>
    </vehicle>
    <vehicle id="h9c1:1" type="default" depart="29925.00" departPos="181.47" arrivalPos="251.49" arrivalSpeed="0.00">
        <route edges="e96t14 e14t96 e96t95 e95t79 e79t87 e87t89 e89t63"/>
    </vehicle>
    <vehicle id="h468c1:1" type="default" depart="30021.00" departPos="243.86" arrivalPos="243.86" arrivalSpeed="0.00">
        <route edges="e59t77 e77t78 e78t79 e79t80 e80t81 e81t19 e19t17 e17t16 e16t14 e14t96 e96t95 e95t39 e39t83 e83t57 e57t59 e59t77"/>
    </vehicle>
    <vehicle id="h369c1:1" type="default" depart="30056.00" departPos="314.92" arrivalPos="196.59" arrivalSpeed="0.00">
        <route edges="e79t87 e87t79 e79t78 e78t77 e77t76 e76t59 e59t60 e60t63 e63t89"/>
    </vehicle>
    <vehicle id="h289c1:1" type="default" depart="30064.00" departPos="111.06" arrivalPos="111.06" arrivalSpeed="0.00">
        <route edges="e80t84 e84t85 e85t86 e86t73 e73t86 e86t87 e87t79 e79t80 e80t84"/>
    </vehicle>
    <vehicle id="carIn54:1" type="default" depart="30072.00" departPos="0.00" arrivalPos="23.76" arrivalSpeed="0.00">
        <route edges="e30t28 e28t73 e73t86 e86t87 e87t89 e89t63"/>
    </vehicle>
    <vehicle id="h236c1:1" type="default" depart="30078.00" departPos="107.14" arrivalPos="2.15" arrivalSpeed="0.00">
        <route edges="e80t84 e84t85 e85t86 e86t87 e87t89 e89t90 e90t92 e92t77"/>
    </vehicle>
    <vehicle id="h336c1:1" type="default" depart="30085.00" departPos="206.36" arrivalPos="217.93" arrivalSpeed="0.00">
        <route edges="e79t87 e87t79 e79t78 e78t77 e77t76 e76t59 e59t60 e60t63 e63t89"/>
    </vehicle>
    <vehicle id="carIn15:1" type="default" depart="30088.00" departPos="0.00" arrivalPos="41.53" arrivalSpeed="0.00">
        <route edges="e07t08 e08t09 e09t33 e33t35 e35t36 e36t37 e37t95 e95t79 e79t87 e87t86 e86t88"/>
    </vehicle>
    <vehicle id="carIn133:1" type="default" depart="30102.00" departPos="0.00" arrivalPos="110.52" arrivalSpeed="0.00">
        <route edges="e07t08 e08t09 e09t33 e33t35 e35t36 e36t37 e37t95 e95t79 e79t87 e87t86 e86t88"/>
    </vehicle>
    <vehicle id="carIn87:1" type="default" depart="30110.00" departPos="0.00" arrivalPos="358.59" arrivalSpeed="0.00">
        <route edges="e07t08 e08t09 e09t33 e33t35 e35t36 e36t37 e37t95 e95t79 e79t87 e87t89 e89t63"/>
    </vehicle>
    <vehicle id="h5c1:1" type="default" depart="30116.00" departPos="75.96" arrivalPos="75.96" arrivalSpeed="0.00">
        <route edges="e96t14 e14t18 e18t20 e20t82 e82t80 e80t79 e79t78 e78t77 e77t76 e76t59 e59t60 e60t63 e63t89 e89t87 e87t79 e79t95 e95t96 e96t14"/>
    </vehicle>
    <vehicle id="carIn173:1" type="default" depart="30130.00" departPos="0.00" arrivalPos="133.52" arrivalSpeed="0.00">
        <route edges="e30t28 e28t73 e73t86 e86t88 e88t91"/>
    </vehicle>
    <vehicle id="randUni178:1" type="random" depart="30145.00" departPos="43.93" arrivalPos="140.30" arrivalSpeed="0.00">
        <route edges="e65t70 e70t73 e73t75 e75t85 e85t86"/>
    </vehicle>
    <vehicle id="randUni34:1" type="random" depart="30157.00" departPos="64.93" arrivalPos="166.85" arrivalSpeed="0.00">
        <route edges="e77t76 e76t59 e59t77 e77t78 e78t79 e79t95 e95t37"/>
    </vehicle>
    <vehicle id="carIn112:1" type="default" depart="30160.00" departPos="0.00" arrivalPos="174.83" arrivalSpeed="0.00">
        <route edges="e30t28 e28t73 e73t86 e86t87 e87t89 e89t63"/>
    </vehicle>
    <vehicle id="h310c1:1" type="default" depart="30174.00" departPos="68.48" arrivalPos="68.48" arrivalSpeed="0.00">
        <route edges="e79t87 e87t89 e89t63 e63t64 e64t65 e65t70 e70t73 e73t86 e86t87 e87t79 e79t87"/>
    </vehicle>
    <vehicle id="h480c1:1" type="default" depart="30175.00" departPos="9.70" arrivalPos="17.59" arrivalSpeed="0.00">
        <route edges="e87t89 e89t87 e87t79 e79t95 e95t96 e96t95"/>
    </vehicle>
    <vehicle id="carIn129:1" type="default" depart="30193.00" departPos="0.00" arrivalPos="102.86" arrivalSpeed="0.00">
        <route edges="e07t08 e08t10 e10t12 e12t14 e14t18 e18t20 e20t82 e82t80 e80t79 e79t78 e78t77 e77t92 e92t77"/>
    </vehicle>
    <vehicle id="h355c1:1" type="default" depart="30194.00" departPos="149.77" arrivalPos="80.62" arrivalSpeed="0.00">
        <route edges="e79t87 e87t86 e86t88 e88t91"/>
    </vehicle>
    <vehicle id="h25c1:1" type="default" depart="30208.00" departPos="191.86" arrivalPos="191.86" arrivalSpeed="0.00">
        <route edges="e96t14 e14t18 e18t20 e20t82 e82t80 e80t79 e79t78 e78t77 e77t76 e76t59 e59t60 e60t63 e63t89 e89t87 e87t79 e79t95 e95t96 e96t14"/>
    </vehicle>
    <vehicle id="carIn114:1" type="default" depart="30212.00" departPos="0.00" arrivalPos="0.00" arrivalSpeed="0.00">
        <route edges="e30t28 e28t73 e73t71 e71t65 e65t61 e61t59 e59t57 e57t55 e55t53 e53t44 e44t52 e52t51"/>
    </vehicle>
    <vehicle id="h439c1:1" type="default" depart="30213.00" departPos="122.60" arrivalPos="68.54" arrivalSpeed="0.00">
        <route edges="e59t77 e77t78 e78t79 e79t80 e80t81 e81t19 e19t17 e17t16 e16t14"/>
    </vehicle>
    <vehicle id="h320c1:1" type="default" depart="30215.00" departPos="161.17" arrivalPos="1.90" arrivalSpeed="0.00">
        <route edges="e79t87 e87t79 e79t78 e78t77 e77t76 e76t93"/>
    </vehicle>
    <vehicle id="h106c1:1" type="default" depart="30229.00" departPos="253.55" arrivalPos="253.55" arrivalSpeed="0.00">
        <route edges="e37t95 e95t79 e79t78 e78t77 e77t92 e92t77 e77t78 e78t79 e79t95 e95t37 e37t95"/>
    </vehicle>
    <vehicle id="carIn10:1" type="default" depart="30238.00" departPos="0.00" arrivalPos="92.98" arrivalSpeed="0.00">
        <route edges="e07t08 e08t10 e10t12 e12t14 e14t96 e96t95"/>
    </vehicle>
    <vehicle id="h113c1:1" type="default" depart="30239.00" departPos="241.73" arrivalPos="59.80" arrivalSpeed="0.00">
        <route edges="e37t95 e95t79 e79t78 e78t77 e77t76 e76t93"/>
    </vehicle>
    <vehicle id="h431c1:1" type="default" depart="30246.00" departPos="59.02" arrivalPos="59.02" arrivalSpeed="0.00">
        <route edges="e59t77 e77t78 e78t79 e79t80 e80t84 e84t85 e85t86 e86t87 e87t79 e79t78 e78t77 e77t76 e76t59 e59t77"/>
    </vehicle>
    <vehicle id="h460c1:1" type="default" depart="30254.00" departPos="229.69" arrivalPos="0.00" arrivalSpeed="0.00">
        <route edges="e59t77 e77t76 e76t59 e59t57 e57t55 e55t53 e53t44 e44t52 e52t51"/>
    </vehicle>
    <vehicle id="h446c1:1" type="default" depart="30257.00" departPos="200.06" arrivalPos="200.06" arrivalSpeed="0.00">
        <route edges="e59t77 e77t78 e78t79 e79t87 e87t86 e86t73 e73t71 e71t65 e65t61 e61t59 e59t77"/>
    </vehicle>
    <vehicle id="carIn178:1" type="default" depart="30262.00" departPos="0.00" arrivalPos="36.87" arrivalSpeed="0.00">
        <route edges="e30t28 e28t73 e73t86 e86t73"/>
    </vehicle>
    <vehicle id="h434c1:1" type="default" depart="30267.00" departPos="240.98" arrivalPos="76.79" arrivalSpeed="0.00">
        <route edges="e59t77 e77t78 e78t79 e79t80 e80t84"/>
    </vehicle>
    <vehicle id="h48c1:1" type="default" depart="30271.00" departPos="63.33" arrivalPos="63.33" arrivalSpeed="0.00">