<?xml version="1.0" encoding="UTF-8"?>

<!-- generated on 2023-01-06 21:55:02 by Eclipse SUMO netedit Version 1.15.0
<configuration xmlns:xsi="http://www.w3.org/2001/XMLSchema-instance" xsi:noNamespaceSchemaLocation="http://sumo.dlr.de/xsd/netconvertConfiguration.xsd">

    <input>
        <sumo-net-file value="D:\Daily\大创\sumo\test16\test164.net.xml"/>
    </input>

    <output>
        <output-file value="D:\Daily\大创\sumo\test16\test165.net.xml"/>
        <output.street-names value="true"/>
    </output>

    <processing>
        <geometry.min-radius.fix.railways value="false"/>
        <geometry.max-grade.fix value="false"/>
        <offset.disable-normalization value="true"/>
        <lefthand value="0"/>
    </processing>

    <junctions>
        <no-turnarounds value="true"/>
        <junctions.corner-detail value="5"/>
        <junctions.limit-turn-speed value="5.50"/>
        <rectangular-lane-cut value="0"/>
    </junctions>

    <pedestrian>
        <walkingareas value="0"/>
    </pedestrian>

</configuration>
-->

<net version="1.9" junctionCornerDetail="5" limitTurnSpeed="5.50" xmlns:xsi="http://www.w3.org/2001/XMLSchema-instance" xsi:noNamespaceSchemaLocation="http://sumo.dlr.de/xsd/net_file.xsd">

    <location netOffset="-778736.23,-3523989.81" convBoundary="1040.20,677.22,2775.36,2234.39" origBoundary="119.945271,31.804385,119.980481,31.858033" projParameter="+proj=utm +zone=50 +ellps=WGS84 +datum=WGS84 +units=m +no_defs"/>

    <type id="highway.primary" priority="12" numLanes="2" speed="27.78" disallow="tram rail_urban rail rail_electric rail_fast ship" oneway="0"/>
    <type id="highway.primary_link" priority="7" numLanes="1" speed="22.22" disallow="tram rail_urban rail rail_electric rail_fast ship" oneway="0"/>
    <type id="highway.residential" priority="3" numLanes="1" speed="13.89" disallow="tram rail_urban rail rail_electric rail_fast ship" oneway="0"/>
    <type id="highway.secondary" priority="11" numLanes="1" speed="27.78" disallow="tram rail_urban rail rail_electric rail_fast ship" oneway="0"/>
    <type id="highway.secondary_link" priority="6" numLanes="1" speed="22.22" disallow="tram rail_urban rail rail_electric rail_fast ship" oneway="0"/>
    <type id="highway.tertiary" priority="10" numLanes="1" speed="22.22" disallow="tram rail_urban rail rail_electric rail_fast ship" oneway="0"/>
    <type id="highway.tertiary_link" priority="5" numLanes="1" speed="22.22" disallow="tram rail_urban rail rail_electric rail_fast ship" oneway="0"/>

    <edge id=":03_0" function="internal">
        <lane id=":03_0_0" index="0" disallow="tram rail_urban rail rail_electric rail_fast ship" speed="25.00" length="3.14" shape="1144.35,1103.59 1141.31,1104.38"/>
    </edge>
    <edge id=":03_1" function="internal">
        <lane id=":03_1_0" index="0" disallow="tram rail_urban rail rail_electric rail_fast ship" speed="27.78" length="3.23" shape="1143.43,1100.41 1140.38,1101.31"/>
        <lane id=":03_1_1" index="1" disallow="tram rail_urban rail rail_electric rail_fast ship" speed="27.78" length="3.23" shape="1142.55,1097.33 1139.44,1098.25"/>
        <lane id=":03_1_2" index="2" disallow="tram rail_urban rail rail_electric rail_fast ship" speed="27.78" length="3.23" shape="1141.66,1094.26 1138.51,1095.19"/>
    </edge>
    <edge id=":04_0" function="internal">
        <lane id=":04_0_0" index="0" disallow="tram rail_urban rail rail_electric rail_fast ship" speed="25.00" length="3.39" shape="1132.59,1083.72 1133.55,1083.42 1134.19,1083.17 1134.80,1082.85 1135.66,1082.32"/>
    </edge>
    <edge id=":04_1" function="internal">
        <lane id=":04_1_0" index="0" disallow="tram rail_urban rail rail_electric rail_fast ship" speed="27.78" length="3.42" shape="1133.54,1086.78 1136.81,1085.75"/>
        <lane id=":04_1_1" index="1" disallow="tram rail_urban rail rail_electric rail_fast ship" speed="27.78" length="3.42" shape="1134.49,1089.83 1137.76,1088.81"/>
        <lane id=":04_1_2" index="2" disallow="tram rail_urban rail rail_electric rail_fast ship" speed="27.78" length="3.42" shape="1135.45,1092.89 1138.71,1091.86"/>
    </edge>
    <edge id=":05_0" function="internal">
        <lane id=":05_0_0" index="0" disallow="tram rail_urban rail rail_electric rail_fast ship" speed="27.78" length="3.19" shape="1154.09,1040.68 1153.05,1037.78"/>
        <lane id=":05_0_1" index="1" disallow="tram rail_urban rail rail_electric rail_fast ship" speed="27.78" length="3.19" shape="1157.12,1039.65 1156.05,1036.65"/>
        <lane id=":05_0_2" index="2" disallow="tram rail_urban rail rail_electric rail_fast ship" speed="27.78" length="3.19" shape="1160.15,1038.63 1159.04,1035.53"/>
    </edge>
    <edge id=":05_3" function="internal">
        <lane id=":05_3_0" index="0" disallow="tram rail_urban rail rail_electric rail_fast ship" speed="25.00" length="2.98" shape="1151.09,1041.69 1150.05,1038.90"/>
    </edge>
    <edge id=":08_0" function="internal">
        <lane id=":08_0_0" index="0" disallow="tram rail_urban rail rail_electric rail_fast ship" speed="25.00" length="3.46" shape="1171.99,1031.89 1172.27,1032.88 1172.50,1033.54 1172.83,1034.17 1173.36,1035.04"/>
    </edge>
    <edge id=":08_1" function="internal">
        <lane id=":08_1_0" index="0" disallow="tram rail_urban rail rail_electric rail_fast ship" speed="27.78" length="3.80" shape="1168.90,1032.74 1169.95,1036.18"/>
        <lane id=":08_1_1" index="1" disallow="tram rail_urban rail rail_electric rail_fast ship" speed="27.78" length="3.80" shape="1165.81,1033.58 1166.92,1037.21"/>
        <lane id=":08_1_2" index="2" disallow="tram rail_urban rail rail_electric rail_fast ship" speed="27.78" length="3.80" shape="1162.73,1034.42 1163.89,1038.24"/>
    </edge>
    <edge id=":09_0" function="internal">
        <lane id=":09_0_0" index="0" disallow="tram rail_urban rail rail_electric rail_fast ship" speed="7.26" length="11.00" shape="1174.25,1098.17 1172.90,1095.66 1170.97,1094.14 1168.46,1093.61 1165.37,1094.09"/>
    </edge>
    <edge id=":09_1" function="internal">
        <lane id=":09_1_0" index="0" disallow="tram rail_urban rail rail_electric rail_fast ship" speed="27.78" length="28.62" shape="1174.25,1098.17 1164.43,1071.25"/>
        <lane id=":09_1_1" index="1" disallow="tram rail_urban rail rail_electric rail_fast ship" speed="27.78" length="28.62" shape="1177.27,1097.10 1167.46,1070.22"/>
        <lane id=":09_1_2" index="2" disallow="tram rail_urban rail rail_electric rail_fast ship" speed="27.78" length="28.62" shape="1180.29,1096.04 1170.49,1069.20"/>
    </edge>
    <edge id=":09_4" function="internal">
        <lane id=":09_4_0" index="0" disallow="tram rail_urban rail rail_electric rail_fast ship" speed="10.59" length="7.29" shape="1180.29,1096.04 1178.87,1089.06 1178.90,1088.89"/>
    </edge>
    <edge id=":09_5" function="internal">
        <lane id=":09_5_0" index="0" disallow="tram rail_urban rail rail_electric rail_fast ship" speed="3.84" length="2.05" shape="1180.29,1096.04 1180.70,1094.42 1180.96,1094.14"/>
    </edge>
    <edge id=":09_24" function="internal">
        <lane id=":09_24_0" index="0" disallow="tram rail_urban rail rail_electric rail_fast ship" speed="10.59" length="18.36" shape="1178.90,1088.89 1179.97,1083.33 1183.59,1078.85 1189.73,1075.62"/>
    </edge>
    <edge id=":09_25" function="internal">
        <lane id=":09_25_0" index="0" disallow="tram rail_urban rail rail_electric rail_fast ship" speed="3.84" length="3.36" shape="1180.96,1094.14 1181.42,1093.67 1182.44,1093.80 1183.78,1094.80"/>
    </edge>
    <edge id=":09_6" function="internal">
        <lane id=":09_6_0" index="0" disallow="tram rail_urban rail rail_electric rail_fast ship" speed="6.50" length="9.03" shape="1193.23,1085.53 1191.03,1086.67 1189.73,1088.24 1189.33,1090.24 1189.81,1092.67"/>
    </edge>
    <edge id=":09_7" function="internal">
        <lane id=":09_7_0" index="0" disallow="tram rail_urban rail rail_electric rail_fast ship" speed="27.78" length="28.95" shape="1193.23,1085.53 1165.37,1094.09"/>
        <lane id=":09_7_1" index="1" disallow="tram rail_urban rail rail_electric rail_fast ship" speed="27.78" length="28.95" shape="1192.16,1082.51 1164.49,1091.01"/>
        <lane id=":09_7_2" index="2" disallow="tram rail_urban rail rail_electric rail_fast ship" speed="27.78" length="28.95" shape="1191.10,1079.49 1163.60,1087.94"/>
    </edge>
    <edge id=":09_10" function="internal">
        <lane id=":09_10_0" index="0" disallow="tram rail_urban rail rail_electric rail_fast ship" speed="10.68" length="8.51" shape="1191.10,1079.49 1184.07,1080.87 1182.75,1080.58"/>
    </edge>
    <edge id=":09_11" function="internal">
        <lane id=":09_11_0" index="0" disallow="tram rail_urban rail rail_electric rail_fast ship" speed="3.98" length="2.65" shape="1191.10,1079.49 1189.30,1079.04 1188.73,1078.49"/>
    </edge>
    <edge id=":09_26" function="internal">
        <lane id=":09_26_0" index="0" disallow="tram rail_urban rail rail_electric rail_fast ship" speed="10.68" length="17.83" shape="1182.75,1080.58 1178.30,1079.61 1173.77,1075.72 1170.49,1069.20"/>
    </edge>
    <edge id=":09_27" function="internal">
        <lane id=":09_27_0" index="0" disallow="tram rail_urban rail rail_electric rail_fast ship" speed="3.98" length="3.36" shape="1188.73,1078.49 1188.48,1078.24 1188.62,1077.10 1189.73,1075.62"/>
    </edge>
    <edge id=":09_12" function="internal">
        <lane id=":09_12_0" index="0" disallow="tram rail_urban rail rail_electric rail_fast ship" speed="6.65" length="9.57" shape="1180.05,1065.96 1181.24,1068.29 1182.89,1069.67 1185.01,1070.10 1187.60,1069.58"/>
    </edge>
    <edge id=":09_13" function="internal">
        <lane id=":09_13_0" index="0" disallow="tram rail_urban rail rail_electric rail_fast ship" speed="27.78" length="28.48" shape="1180.05,1065.96 1189.81,1092.67"/>
        <lane id=":09_13_1" index="1" disallow="tram rail_urban rail rail_electric rail_fast ship" speed="27.78" length="28.48" shape="1177.02,1066.99 1186.80,1093.74"/>
        <lane id=":09_13_2" index="2" disallow="tram rail_urban rail rail_electric rail_fast ship" speed="27.78" length="28.48" shape="1173.99,1068.01 1183.78,1094.80"/>
    </edge>
    <edge id=":09_16" function="internal">
        <lane id=":09_16_0" index="0" disallow="tram rail_urban rail rail_electric rail_fast ship" speed="10.46" length="7.15" shape="1173.99,1068.01 1175.31,1075.04"/>
    </edge>
    <edge id=":09_17" function="internal">
        <lane id=":09_17_0" index="0" disallow="tram rail_urban rail rail_electric rail_fast ship" speed="3.84" length="2.03" shape="1173.99,1068.01 1173.56,1069.62 1173.31,1069.88"/>
    </edge>
    <edge id=":09_28" function="internal">
        <lane id=":09_28_0" index="0" disallow="tram rail_urban rail rail_electric rail_fast ship" speed="10.46" length="18.75" shape="1175.31,1075.04 1174.01,1080.71 1170.11,1085.01 1163.60,1087.94"/>
    </edge>
    <edge id=":09_29" function="internal">
        <lane id=":09_29_0" index="0" disallow="tram rail_urban rail rail_electric rail_fast ship" speed="3.84" length="3.37" shape="1173.31,1069.88 1172.83,1070.35 1171.81,1070.21 1170.49,1069.20"/>
    </edge>
    <edge id=":09_18" function="internal">
        <lane id=":09_18_0" index="0" disallow="tram rail_urban rail rail_electric rail_fast ship" speed="6.46" length="9.06" shape="1160.82,1078.28 1163.08,1077.20 1164.43,1075.68 1164.88,1073.69 1164.43,1071.25"/>
    </edge>
    <edge id=":09_19" function="internal">
        <lane id=":09_19_0" index="0" disallow="tram rail_urban rail rail_electric rail_fast ship" speed="27.78" length="28.34" shape="1160.82,1078.28 1187.60,1069.58"/>
        <lane id=":09_19_1" index="1" disallow="tram rail_urban rail rail_electric rail_fast ship" speed="27.78" length="28.34" shape="1161.71,1081.35 1188.66,1072.60"/>
        <lane id=":09_19_2" index="2" disallow="tram rail_urban rail rail_electric rail_fast ship" speed="27.78" length="28.34" shape="1162.59,1084.43 1189.73,1075.62"/>
    </edge>
    <edge id=":09_22" function="internal">
        <lane id=":09_22_0" index="0" disallow="tram rail_urban rail rail_electric rail_fast ship" speed="10.95" length="7.57" shape="1162.59,1084.43 1169.83,1083.23 1170.06,1083.28"/>
    </edge>
    <edge id=":09_23" function="internal">
        <lane id=":09_23_0" index="0" disallow="tram rail_urban rail rail_electric rail_fast ship" speed="3.83" length="1.98" shape="1162.59,1084.43 1164.16,1084.93 1164.39,1085.17"/>
    </edge>
    <edge id=":09_30" function="internal">
        <lane id=":09_30_0" index="0" disallow="tram rail_urban rail rail_electric rail_fast ship" speed="10.95" length="19.11" shape="1170.06,1083.28 1175.78,1084.56 1180.43,1088.42 1183.78,1094.80"/>
    </edge>
    <edge id=":09_31" function="internal">
        <lane id=":09_31_0" index="0" disallow="tram rail_urban rail rail_electric rail_fast ship" speed="3.83" length="3.36" shape="1164.39,1085.17 1164.85,1085.68 1164.67,1086.68 1163.60,1087.94"/>
    </edge>
    <edge id=":10_0" function="internal">
        <lane id=":10_0_0" index="0" disallow="tram rail_urban rail rail_electric rail_fast ship" speed="25.00" length="3.34" shape="1217.57,1055.23 1218.55,1055.10 1219.21,1054.98 1219.87,1054.79 1220.80,1054.46"/>
    </edge>
    <edge id=":10_1" function="internal">
        <lane id=":10_1_0" index="0" disallow="tram rail_urban rail rail_electric rail_fast ship" speed="27.78" length="3.33" shape="1218.73,1058.59 1221.87,1057.48"/>
        <lane id=":10_1_1" index="1" disallow="tram rail_urban rail rail_electric rail_fast ship" speed="27.78" length="3.33" shape="1219.80,1061.61 1222.93,1060.50"/>
        <lane id=":10_1_2" index="2" disallow="tram rail_urban rail rail_electric rail_fast ship" speed="27.78" length="3.33" shape="1220.86,1064.63 1224.00,1063.52"/>
    </edge>
    <edge id=":11_0" function="internal">
        <lane id=":11_0_0" index="0" disallow="tram rail_urban rail rail_electric rail_fast ship" speed="25.00" length="3.18" shape="1224.22,1078.03 1223.33,1078.34 1222.73,1078.58 1222.14,1078.84 1221.29,1079.25"/>
    </edge>
    <edge id=":11_1" function="internal">
        <lane id=":11_1_0" index="0" disallow="tram rail_urban rail rail_electric rail_fast ship" speed="27.78" length="3.17" shape="1223.16,1075.01 1220.16,1076.06"/>
        <lane id=":11_1_1" index="1" disallow="tram rail_urban rail rail_electric rail_fast ship" speed="27.78" length="3.17" shape="1222.09,1071.99 1219.10,1073.04"/>
        <lane id=":11_1_2" index="2" disallow="tram rail_urban rail rail_electric rail_fast ship" speed="27.78" length="3.17" shape="1221.03,1068.97 1218.04,1070.03"/>
    </edge>
    <edge id=":12_0" function="internal">
        <lane id=":12_0_0" index="0" disallow="tram rail_urban rail rail_electric rail_fast ship" speed="27.78" length="8.00" shape="1310.81,1026.09 1318.35,1023.43"/>
        <lane id=":12_0_1" index="1" disallow="tram rail_urban rail rail_electric rail_fast ship" speed="27.78" length="8.00" shape="1311.87,1029.11 1319.42,1026.45"/>
        <lane id=":12_0_2" index="2" disallow="tram rail_urban rail rail_electric rail_fast ship" speed="27.78" length="8.00" shape="1312.94,1032.13 1320.48,1029.47"/>
    </edge>
    <edge id=":13_0" function="internal">
        <lane id=":13_0_0" index="0" disallow="tram rail_urban rail rail_electric rail_fast ship" speed="27.78" length="8.20" shape="1319.76,1041.06 1317.61,1042.35 1316.52,1043.90 1315.43,1045.45 1313.28,1046.73"/>
        <lane id=":13_0_1" index="1" disallow="tram rail_urban rail rail_electric rail_fast ship" speed="27.78" length="8.20" shape="1319.76,1041.06 1312.22,1043.72"/>
        <lane id=":13_0_2" index="2" disallow="tram rail_urban rail rail_electric rail_fast ship" speed="27.78" length="8.20" shape="1318.70,1038.04 1311.16,1040.70"/>
        <lane id=":13_0_3" index="3" disallow="tram rail_urban rail rail_electric rail_fast ship" speed="27.78" length="8.20" shape="1317.64,1035.02 1310.10,1037.68"/>
    </edge>
    <edge id=":14_0" function="internal">
        <lane id=":14_0_0" index="0" disallow="tram rail_urban rail rail_electric rail_fast ship" speed="6.48" length="9.03" shape="1467.37,995.15 1466.25,992.93 1464.69,991.62 1462.70,991.20 1460.26,991.69"/>
    </edge>
    <edge id=":14_1" function="internal">
        <lane id=":14_1_0" index="0" disallow="tram rail_urban rail rail_electric rail_fast ship" speed="22.22" length="28.54" shape="1467.37,995.15 1458.02,968.18"/>
    </edge>
    <edge id=":14_2" function="internal">
        <lane id=":14_2_0" index="0" disallow="tram rail_urban rail rail_electric rail_fast ship" speed="9.62" length="7.50" shape="1467.37,995.15 1465.57,988.12 1465.56,987.87"/>
    </edge>
    <edge id=":14_3" function="internal">
        <lane id=":14_3_0" index="0" disallow="tram rail_urban rail rail_electric rail_fast ship" speed="3.65" length="1.44" shape="1467.37,995.15 1467.74,993.75"/>
    </edge>
    <edge id=":14_20" function="internal">
        <lane id=":14_20_0" index="0" disallow="tram rail_urban rail rail_electric rail_fast ship" speed="9.62" length="13.33" shape="1465.56,987.87 1465.46,982.68 1467.06,978.84 1470.35,976.60"/>
    </edge>
    <edge id=":14_21" function="internal">
        <lane id=":14_21_0" index="0" disallow="tram rail_urban rail rail_electric rail_fast ship" speed="3.65" length="3.23" shape="1467.74,993.75 1468.37,993.12 1469.25,993.24 1470.40,994.12"/>
    </edge>
    <edge id=":14_4" function="internal">
        <lane id=":14_4_0" index="0" disallow="tram rail_urban rail rail_electric rail_fast ship" speed="6.58" length="9.17" shape="1473.94,986.88 1471.71,988.04 1470.38,989.63 1469.94,991.66 1470.40,994.12"/>
    </edge>
    <edge id=":14_5" function="internal">
        <lane id=":14_5_0" index="0" disallow="tram rail_urban rail rail_electric rail_fast ship" speed="27.78" length="14.50" shape="1473.94,986.88 1460.26,991.69"/>
        <lane id=":14_5_1" index="1" disallow="tram rail_urban rail rail_electric rail_fast ship" speed="27.78" length="14.50" shape="1472.89,983.86 1459.20,988.67"/>
        <lane id=":14_5_2" index="2" disallow="tram rail_urban rail rail_electric rail_fast ship" speed="27.78" length="14.50" shape="1471.83,980.84 1458.14,985.65"/>
    </edge>
    <edge id=":14_8" function="internal">
        <lane id=":14_8_0" index="0" disallow="tram rail_urban rail rail_electric rail_fast ship" speed="9.61" length="5.07" shape="1471.83,980.84 1467.92,981.12 1466.92,980.56"/>
    </edge>
    <edge id=":14_9" function="internal">
        <lane id=":14_9_0" index="0" disallow="tram rail_urban rail rail_electric rail_fast ship" speed="4.12" length="3.17" shape="1471.83,980.84 1469.87,980.33 1469.05,979.54"/>
    </edge>
    <edge id=":14_22" function="internal">
        <lane id=":14_22_0" index="0" disallow="tram rail_urban rail rail_electric rail_fast ship" speed="9.61" length="15.67" shape="1466.92,980.56 1464.31,979.10 1461.01,974.79 1458.02,968.18"/>
    </edge>
    <edge id=":14_23" function="internal">
        <lane id=":14_23_0" index="0" disallow="tram rail_urban rail rail_electric rail_fast ship" speed="4.12" length="3.39" shape="1469.05,979.54 1468.97,979.46 1469.13,978.21 1470.35,976.60"/>
    </edge>
    <edge id=":14_10" function="internal">
        <lane id=":14_10_0" index="0" disallow="tram rail_urban rail rail_electric rail_fast ship" speed="6.56" length="9.10" shape="1461.02,967.08 1462.20,969.29 1463.80,970.61 1465.81,971.03 1468.23,970.56"/>
    </edge>
    <edge id=":14_11" function="internal">
        <lane id=":14_11_0" index="0" disallow="tram rail_urban rail rail_electric rail_fast ship" speed="22.22" length="28.62" shape="1461.02,967.08 1470.40,994.12"/>
    </edge>
    <edge id=":14_12" function="internal">
        <lane id=":14_12_0" index="0" disallow="tram rail_urban rail rail_electric rail_fast ship" speed="9.57" length="8.05" shape="1461.02,967.08 1462.98,974.07 1463.00,974.86"/>
    </edge>
    <edge id=":14_13" function="internal">
        <lane id=":14_13_0" index="0" disallow="tram rail_urban rail rail_electric rail_fast ship" speed="3.65" length="1.44" shape="1461.02,967.08 1460.68,968.48"/>
    </edge>
    <edge id=":14_24" function="internal">
        <lane id=":14_24_0" index="0" disallow="tram rail_urban rail rail_electric rail_fast ship" speed="9.57" length="12.92" shape="1463.00,974.86 1463.15,979.50 1461.54,983.36 1458.14,985.65"/>
    </edge>
    <edge id=":14_25" function="internal">
        <lane id=":14_25_0" index="0" disallow="tram rail_urban rail rail_electric rail_fast ship" speed="3.65" length="3.23" shape="1460.68,968.48 1460.07,969.13 1459.18,969.03 1458.02,968.18"/>
    </edge>
    <edge id=":14_14" function="internal">
        <lane id=":14_14_0" index="0" disallow="tram rail_urban rail rail_electric rail_fast ship" speed="6.51" length="9.14" shape="1454.53,975.37 1456.78,974.20 1458.11,972.62 1458.52,970.61 1458.02,968.18"/>
    </edge>
    <edge id=":14_15" function="internal">
        <lane id=":14_15_0" index="0" disallow="tram rail_urban rail rail_electric rail_fast ship" speed="27.78" length="14.52" shape="1454.53,975.37 1468.23,970.56"/>
        <lane id=":14_15_1" index="1" disallow="tram rail_urban rail rail_electric rail_fast ship" speed="27.78" length="14.52" shape="1455.59,978.39 1469.29,973.58"/>
        <lane id=":14_15_2" index="2" disallow="tram rail_urban rail rail_electric rail_fast ship" speed="27.78" length="14.52" shape="1456.65,981.41 1470.35,976.60"/>
    </edge>
    <edge id=":14_18" function="internal">
        <lane id=":14_18_0" index="0" disallow="tram rail_urban rail rail_electric rail_fast ship" speed="9.55" length="5.19" shape="1456.65,981.41 1460.68,981.09 1461.68,981.64"/>
    </edge>
    <edge id=":14_19" function="internal">
        <lane id=":14_19_0" index="0" disallow="tram rail_urban rail rail_electric rail_fast ship" speed="4.12" length="3.17" shape="1456.65,981.41 1458.61,981.91 1459.44,982.71"/>
    </edge>
    <edge id=":14_26" function="internal">
        <lane id=":14_26_0" index="0" disallow="tram rail_urban rail rail_electric rail_fast ship" speed="9.55" length="15.68" shape="1461.68,981.64 1464.31,983.10 1467.55,987.44 1470.40,994.12"/>
    </edge>
    <edge id=":14_27" function="internal">
        <lane id=":14_27_0" index="0" disallow="tram rail_urban rail rail_electric rail_fast ship" speed="4.12" length="3.39" shape="1459.44,982.71 1459.52,982.78 1459.36,984.03 1458.14,985.65"/>
    </edge>
    <edge id=":16_0" function="internal">
        <lane id=":16_0_0" index="0" disallow="tram rail_urban rail rail_electric rail_fast ship" speed="27.78" length="8.00" shape="1587.31,947.04 1579.77,949.70"/>
        <lane id=":16_0_1" index="1" disallow="tram rail_urban rail rail_electric rail_fast ship" speed="27.78" length="8.00" shape="1586.25,944.02 1578.71,946.68"/>
        <lane id=":16_0_2" index="2" disallow="tram rail_urban rail rail_electric rail_fast ship" speed="27.78" length="8.00" shape="1585.19,941.01 1577.65,943.66"/>
    </edge>
    <edge id=":17_0" function="internal">
        <lane id=":17_0_0" index="0" disallow="tram rail_urban rail rail_electric rail_fast ship" speed="27.78" length="3.37" shape="1679.94,914.50 1676.76,915.61"/>
        <lane id=":17_0_1" index="1" disallow="tram rail_urban rail rail_electric rail_fast ship" speed="27.78" length="3.37" shape="1678.89,911.47 1675.70,912.59"/>
        <lane id=":17_0_2" index="2" disallow="tram rail_urban rail rail_electric rail_fast ship" speed="27.78" length="3.37" shape="1677.83,908.45 1674.64,909.57"/>
    </edge>
    <edge id=":17_3" function="internal">
        <lane id=":17_3_0" index="0" disallow="tram rail_urban rail rail_electric rail_fast ship" speed="25.00" length="3.39" shape="1680.88,917.19 1680.00,917.68 1679.39,918.00 1678.77,918.28 1677.83,918.63"/>
    </edge>
    <edge id=":18_0" function="internal">
        <lane id=":18_0_0" index="0" disallow="tram rail_urban rail rail_electric rail_fast ship" speed="6.78" length="9.49" shape="1736.57,901.05 1735.23,898.70 1733.53,897.28 1731.48,896.79 1729.07,897.23"/>
    </edge>
    <edge id=":18_1" function="internal">
        <lane id=":18_1_0" index="0" disallow="tram rail_urban rail rail_electric rail_fast ship" speed="10.57" length="26.89" shape="1736.57,901.05 1734.11,892.78 1734.25,886.23 1736.99,881.43 1742.35,878.35"/>
        <lane id=":18_1_1" index="1" disallow="tram rail_urban rail rail_electric rail_fast ship" speed="10.01" length="24.05" shape="1736.57,901.05 1734.63,894.08 1735.11,888.48 1738.02,884.25 1743.36,881.39"/>
    </edge>
    <edge id=":18_3" function="internal">
        <lane id=":18_3_0" index="0" disallow="tram rail_urban rail rail_electric rail_fast ship" speed="4.97" length="7.35" shape="1736.57,901.05 1737.26,897.85 1738.62,896.33 1740.64,896.51"/>
    </edge>
    <edge id=":18_14" function="internal">
        <lane id=":18_14_0" index="0" disallow="tram rail_urban rail rail_electric rail_fast ship" speed="4.97" length="3.28" shape="1740.64,896.51 1743.34,898.38"/>
    </edge>
    <edge id=":18_4" function="internal">
        <lane id=":18_4_0" index="0" disallow="tram rail_urban rail rail_electric rail_fast ship" speed="6.37" length="9.06" shape="1746.65,891.29 1744.39,892.41 1743.09,893.97 1742.73,895.95 1743.34,898.38"/>
    </edge>
    <edge id=":18_5" function="internal">
        <lane id=":18_5_0" index="0" disallow="tram rail_urban rail rail_electric rail_fast ship" speed="27.78" length="18.61" shape="1746.65,891.29 1729.07,897.23"/>
        <lane id=":18_5_1" index="1" disallow="tram rail_urban rail rail_electric rail_fast ship" speed="27.78" length="18.61" shape="1745.64,888.26 1728.01,894.21"/>
        <lane id=":18_5_2" index="2" disallow="tram rail_urban rail rail_electric rail_fast ship" speed="27.78" length="18.61" shape="1744.63,885.22 1726.95,891.19"/>
    </edge>
    <edge id=":18_8" function="internal">
        <lane id=":18_8_0" index="0" disallow="tram rail_urban rail rail_electric rail_fast ship" speed="3.96" length="2.51" shape="1744.63,885.22 1742.87,884.74 1742.39,884.25"/>
    </edge>
    <edge id=":18_15" function="internal">
        <lane id=":18_15_0" index="0" disallow="tram rail_urban rail rail_electric rail_fast ship" speed="3.96" length="3.39" shape="1742.39,884.25 1742.08,883.94 1742.24,882.82 1743.36,881.39"/>
    </edge>
    <edge id=":18_9" function="internal">
        <lane id=":18_9_0" index="0" disallow="tram rail_urban rail rail_electric rail_fast ship" speed="27.78" length="18.79" shape="1723.46,881.28 1741.34,875.31"/>
        <lane id=":18_9_1" index="1" disallow="tram rail_urban rail rail_electric rail_fast ship" speed="27.78" length="18.79" shape="1724.52,884.30 1742.35,878.35"/>
        <lane id=":18_9_2" index="2" disallow="tram rail_urban rail rail_electric rail_fast ship" speed="27.78" length="18.79" shape="1725.58,887.32 1743.36,881.39"/>
    </edge>
    <edge id=":18_12" function="internal">
        <lane id=":18_12_0" index="0" disallow="tram rail_urban rail rail_electric rail_fast ship" speed="10.35" length="6.46" shape="1725.58,887.32 1731.03,886.49 1731.93,886.79"/>
    </edge>
    <edge id=":18_13" function="internal">
        <lane id=":18_13_0" index="0" disallow="tram rail_urban rail rail_electric rail_fast ship" speed="3.98" length="2.62" shape="1725.58,887.32 1727.38,887.78 1727.93,888.31"/>
    </edge>
    <edge id=":18_16" function="internal">
        <lane id=":18_16_0" index="0" disallow="tram rail_urban rail rail_electric rail_fast ship" speed="10.35" length="17.00" shape="1731.93,886.79 1735.81,888.06 1739.91,892.02 1743.34,898.38"/>
    </edge>
    <edge id=":18_17" function="internal">
        <lane id=":18_17_0" index="0" disallow="tram rail_urban rail rail_electric rail_fast ship" speed="3.98" length="3.37" shape="1727.93,888.31 1728.20,888.58 1728.06,889.71 1726.95,891.19"/>
    </edge>
    <edge id=":19_0" function="internal">
        <lane id=":19_0_0" index="0" disallow="tram rail_urban rail rail_electric rail_fast ship" speed="22.22" length="3.26" shape="1748.64,938.74 1748.27,937.85 1747.99,937.25 1747.67,936.67 1747.16,935.85"/>
    </edge>
    <edge id=":19_1" function="internal">
        <lane id=":19_1_0" index="0" disallow="tram rail_urban rail rail_electric rail_fast ship" speed="22.22" length="3.26" shape="1751.60,937.53 1750.36,934.51"/>
    </edge>
    <edge id=":20_0" function="internal">
        <lane id=":20_0_0" index="0" disallow="tram rail_urban rail rail_electric rail_fast ship" speed="22.22" length="3.26" shape="1760.51,931.02 1760.68,931.97 1760.82,932.62 1761.01,933.26 1761.33,934.17"/>
    </edge>
    <edge id=":20_1" function="internal">
        <lane id=":20_1_0" index="0" disallow="tram rail_urban rail rail_electric rail_fast ship" speed="22.22" length="3.29" shape="1757.14,932.14 1758.30,935.22"/>
    </edge>
    <edge id=":21_0" function="internal">
        <lane id=":21_0_0" index="0" disallow="tram rail_urban rail rail_electric rail_fast ship" speed="25.00" length="2.88" shape="1808.51,874.21 1805.79,875.17"/>
    </edge>
    <edge id=":21_1" function="internal">
        <lane id=":21_1_0" index="0" disallow="tram rail_urban rail rail_electric rail_fast ship" speed="27.78" length="3.03" shape="1807.48,871.18 1804.67,872.12"/>
        <lane id=":21_1_1" index="1" disallow="tram rail_urban rail rail_electric rail_fast ship" speed="27.78" length="3.03" shape="1806.44,868.15 1803.57,869.11"/>
        <lane id=":21_1_2" index="2" disallow="tram rail_urban rail rail_electric rail_fast ship" speed="27.78" length="3.03" shape="1805.41,865.12 1802.47,866.11"/>
    </edge>
    <edge id=":22_0" function="internal">
        <lane id=":22_0_0" index="0" disallow="tram rail_urban rail rail_electric rail_fast ship" speed="6.30" length="9.04" shape="1876.57,824.38 1877.46,826.73 1878.87,828.15 1880.82,828.64 1883.29,828.21"/>
    </edge>
    <edge id=":22_1" function="internal">